omf/scratch/gridballastVoltReg/_voltViz/voltDump.csv
# voltDump.csv run at 2012-01-01 12:00:00 EST on 5974 nodes
node_name,voltA_real,voltA_imag,voltB_real,voltB_imag,voltC_real,voltC_imag
EGAN25,14399.999618,0.000000,-7199.999809,-12470.765484,-7199.999809,12470.765484
3129312850001,14334.354577,-23.938178,-7164.216226,-12480.678443,-7169.018583,12379.550362
3129311191001,14287.919039,-36.711948,-7138.040311,-12493.787154,-7152.691729,12301.631413
CP3128302767002,14242.473733,-36.044999,-7114.168880,-12503.452877,-7147.141408,12232.308758
3128394971001,14234.248134,-45.278860,-7099.185117,-12517.380868,-7131.159360,12197.034732
3128394820001,14234.366046,-45.264218,-7099.230022,-12517.485829,-7131.229846,12197.124380
CP3128393965001,14235.296716,-45.265356,-7100.559297,-12516.870438,-7132.037667,12199.584785
CP3128497940001,14237.081739,-41.804726,-7060.129731,-12514.677255,-7118.088426,12163.250885
3128401949001,14281.883349,-38.087226,-7134.901305,-12495.235731,-7150.896466,12292.043984
3128401071001,14281.781331,-37.994875,-7134.874391,-12495.008668,-7150.922858,12292.095627
3129329081001,14385.684852,-14.750249,-7205.055403,-12486.375605,-7205.743013,12445.788625
3129333277001,14369.475212,28.246159,-7186.928442,-12433.215186,-7207.347437,12454.493486
CP3129341551001,14305.832051,62.905757,-7160.847091,-12412.188795,-7226.804755,12361.794725
3129350287001,14257.811224,80.236659,-7180.039852,-12409.970291,-7247.588710,12328.804642
CP3129352315001,14252.486965,82.923537,-7182.969634,-12408.939884,-7250.243870,12328.277351
3129353491001,14245.447950,87.102729,-7186.624221,-12408.327258,-7253.781766,12327.825997
3129358600002,14233.848342,93.130042,-7192.577476,-12406.609283,-7259.054573,12327.590830
3129452740001,14232.161817,92.400139,-7192.635918,-12406.079212,-7258.562538,12326.667412
3129352408001,14251.337999,84.485991,-7180.755914,-12406.490841,-7250.407910,12328.652734
3129351411001,14251.385104,83.984892,-7181.906346,-12407.467677,-7250.499149,12328.355409
3129248050001,14278.040228,69.119026,-7168.354775,-12414.956277,-7237.303606,12328.146573
3129255178001,14280.264033,63.822842,-7164.741693,-12419.936236,-7236.301128,12314.827008
3129245038002,14280.377203,63.903824,-7164.796883,-12420.060316,-7236.499578,12314.944511
3129243867001,14280.059777,64.477938,-7165.095271,-12419.204211,-7236.119034,12316.608922
3129243885001,14280.046458,64.472307,-7165.093459,-12419.190746,-7236.108065,12316.601723
3129337469001,14352.450861,45.057659,-7174.105155,-12413.663992,-7213.180355,12439.466299
3129122759001,14383.899035,10.294235,-7192.452667,-12440.742483,-7182.670866,12475.454138
3129240481001,14347.185772,46.722765,-7147.150337,-12361.770794,-7140.616354,12469.766847
3129149665001,14346.686324,46.977199,-7146.607210,-12361.451644,-7140.514769,12469.879493
CP3129055832001,14311.826544,83.212940,-7152.093378,-12307.956013,-7150.135915,12515.833649
3129152149001,14328.807439,68.282416,-7145.223690,-12333.322713,-7142.766277,12491.786896
3129147797001,14345.421096,49.284481,-7146.075912,-12358.243712,-7140.101482,12471.810768
3129147742001,14345.623642,49.485031,-7145.996766,-12358.193250,-7140.034334,12471.839707
3129241256001,14368.476568,33.187536,-7167.644608,-12399.532905,-7163.350685,12475.311449
nodeFS3129228853001OH3129228853001,14399.999618,0.000000,-7199.999809,-12470.765484,-7199.999809,12470.765484
nodeUD3129228852001FS3129228853001,14399.999618,0.000000,-7199.999809,-12470.765484,-7199.999809,12470.765484
node3129228862001UD3129228852001,14399.999618,0.000000,-7199.999809,-12470.765484,-7199.999809,12470.765484
nodeOH3129228770001OC3129228843004,14399.999618,0.000000,-7199.999809,-12470.765484,-7199.999809,12470.765484
nodeOH3129228790002OH3129228770001,14398.048991,0.046500,-7198.383536,-12470.635076,-7199.246655,12468.062075
nodeOH3129228790003OH3129228790002,14397.540560,-0.250115,-7198.000734,-12470.703595,-7198.811921,12467.272515
nodeOH3129228786001OH3129228790003,14397.433521,-0.312560,-7197.920144,-12470.718021,-7198.720398,12467.106291
node3129228786001OH3129228786001,14396.149064,-1.061903,-7196.953066,-12470.891122,-7197.622125,12465.111612
nodeOH3129228688001OH3129228782001,14394.683980,-1.916623,-7195.849993,-12471.088566,-7196.369406,12462.836431
nodeOH3129228692001OH3129228688001,14393.111857,-2.833787,-7194.666330,-12471.300435,-7195.025165,12460.395027
nodeFS3129228692001OH3129228692001,14391.258760,-3.914871,-7193.271118,-12471.550170,-7193.440676,12457.517286
nodeUD3129229673001FS3129228692001,0.000000,0.000000,0.000000,0.000000,-7193.440676,12457.517286
nodeUD3129320644001UD3129229673001,0.000000,0.000000,0.000000,0.000000,-7193.478134,12457.527879
node3129320673001UD3129320644001,0.000000,0.000000,0.000000,0.000000,-7193.553601,12457.549220
nodeOH3129228594001OH3129228598001,14389.830041,-4.735904,-7192.177963,-12471.724438,-7192.194352,12455.307168
nodeOH3129228400001OH3129228594001,14388.607323,-5.438556,-7191.242427,-12471.873579,-7191.127730,12453.415719
nodeOH3129229407001OH3129228400001,14387.264992,-6.209946,-7190.215370,-12472.037310,-7189.956765,12451.339236
nodeOH3129229416001OH3129229407001,14385.942596,-6.969879,-7189.203566,-12472.198610,-7188.803191,12449.293592
nodeOH3129229466001OH3129229416001,14385.616981,-7.156998,-7188.954429,-12472.238326,-7188.519145,12448.789891
nodeSW3129229466001OH3129229466001,14384.079711,-8.003966,-7187.848348,-12472.394812,-7187.244509,12446.482769
nodeSW3129229466002SW3129229466001,14384.079711,-8.003966,-7187.848348,-12472.394812,-7187.244509,12446.482769
nodeOH3129320416001SW3129229466002,14384.079711,-8.003966,-7187.848348,-12472.394812,-7187.244509,12446.482769
nodeOH3129320466001OH3129320416001,14382.454014,-8.899654,-7186.678642,-12472.560300,-7185.896553,12444.042937
nodeOH3129321406001OH3129320466001,14380.882734,-9.765360,-7185.548090,-12472.720248,-7184.593717,12441.684773
nodeOH3129321446001OH3129321406001,14379.699172,-10.417450,-7184.696506,-12472.840728,-7183.612360,12439.908493
nodeOH3129321486001OH3129321446001,14378.461193,-11.099521,-7183.805768,-12472.966748,-7182.585884,12438.050546
nodeOH3129322436001OH3129321486001,14377.012351,-11.897770,-7182.763311,-12473.114233,-7181.384568,12435.876135
nodeOH3129322486001OH3129322436001,14375.461476,-12.752233,-7181.647441,-12473.272104,-7180.098652,12433.548596
nodeFS3129322486002OH3129322486001,14373.917404,-13.602949,-7180.536466,-12473.429282,-7178.818376,12431.231266
nodeOH3129323427002FS3129322486002,0.000000,0.000000,0.000000,0.000000,-7178.818376,12431.231266
nodeOH3129323487001OH3129323427002,0.000000,0.000000,0.000000,0.000000,-7178.757035,12431.109048
node3129323498001OH3129323487001,0.000000,0.000000,0.000000,0.000000,-7178.663199,12430.922084
nodeOH3129324446001OH3129323486001,0.000000,0.000000,0.000000,0.000000,-7178.659898,12430.911077
nodeOH3129324456001OH3129324446001,0.000000,0.000000,0.000000,0.000000,-7178.639717,12430.843781
nodeOH3129324469001OH3129324456001,0.000000,0.000000,0.000000,0.000000,-7178.636567,12430.833273
node3129324489001OH3129324469001,0.000000,0.000000,0.000000,0.000000,-7178.627639,12430.803503
node3129322489001OH3129322489001,0.000000,0.000000,0.000000,0.000000,-7178.840433,12431.197136
node3129322419001OH3129322419001,0.000000,0.000000,0.000000,0.000000,-7178.789751,12431.089869
node3129322473001OH3129322492001,14372.611414,-14.268644,-7179.694811,-12473.531338,-7177.852250,12429.395507
nodeOH3129322378001OH3129322300001,14371.617360,-14.790480,-7179.053171,-12473.620715,-7177.116071,12427.987858
nodeOC3129322378001OH3129322378001,0.000000,0.000000,-7177.876309,-12473.509294,0.000000,0.000000
nodeOH3129322358001OC3129322378001,0.000000,0.000000,-7177.876309,-12473.509294,0.000000,0.000000
node3129322345002OH3129322358001,0.000000,0.000000,-7177.312060,-12473.455874,0.000000,0.000000
node3129322337001OH3129322348001,0.000000,0.000000,-7176.887464,-12473.431647,0.000000,0.000000
node3129321383001OH3129322308001,0.000000,0.000000,-7175.575077,-12473.356767,0.000000,0.000000
node3129321354002OH3129321348001,0.000000,0.000000,-7173.360227,-12473.102370,0.000000,0.000000
nodeOH3129321441002OH3129321349002,0.000000,0.000000,-7173.352754,-12473.111940,0.000000,0.000000
nodeOH3129321444001OH3129321441002,0.000000,0.000000,-7173.320725,-12473.152957,0.000000,0.000000
node3129321434001OH3129321444001,0.000000,0.000000,-7173.297015,-12473.192324,0.000000,0.000000
nodeOH3129320388002OH3129320388001,0.000000,0.000000,-7171.650876,-12472.791064,0.000000,0.000000
nodeOH3129320482001OH3129320388002,0.000000,0.000000,-7171.648280,-12472.795549,0.000000,0.000000
node3129321402001OH3129320482001,0.000000,0.000000,-7171.615174,-12472.852735,0.000000,0.000000
node3129320411001OH3129320328001,0.000000,0.000000,-7169.884233,-12472.385966,0.000000,0.000000
node3129320414001OH3129320422001,0.000000,0.000000,-7169.828134,-12472.377379,0.000000,0.000000
nodeOH3129228398001OH3129229368001,0.000000,0.000000,-7168.113898,-12471.907231,0.000000,0.000000
nodeOH3129228368001OH3129228398001,0.000000,0.000000,-7166.199683,-12471.389589,0.000000,0.000000
node3129228369001OH3129228368001,0.000000,0.000000,-7165.499038,-12471.200120,0.000000,0.000000
nodeOH3129227319001OH3129227398002,0.000000,0.000000,-7163.443136,-12470.553838,0.000000,0.000000
node3129226390001OH3129227319001,0.000000,0.000000,-7161.039387,-12469.798208,0.000000,0.000000
node3129226482001UD3129226482001,0.000000,0.000000,-7161.011885,-12469.784101,0.000000,0.000000
node3129226423001OH3129226319001,0.000000,0.000000,-7158.343241,-12468.937100,0.000000,0.000000
nodeOH3129225496001OH3129225379001,0.000000,0.000000,-7157.206258,-12468.530362,0.000000,0.000000
node3129225496001OH3129225496001,0.000000,0.000000,-7157.191630,-12468.625637,0.000000,0.000000
node3129225370001OH3129225370001,0.000000,0.000000,-7156.913127,-12468.410983,0.000000,0.000000
nodeOH3129223491001OH3129225310001,0.000000,0.000000,-7155.410632,-12467.799084,0.000000,0.000000
nodeOH3129224347001OH3129223491001,0.000000,0.000000,-7152.556346,-12466.636660,0.000000,0.000000
nodeOH3129224371001OH3129224347001,0.000000,0.000000,-7152.542916,-12466.716513,0.000000,0.000000
nodeOH3129225206001OH3129224371001,0.000000,0.000000,-7152.529486,-12466.796365,0.000000,0.000000
node3129225217001OH3129225206001,0.000000,0.000000,-7152.516056,-12466.876218,0.000000,0.000000
nodeFS3129225244001OH3129225234001,0.000000,0.000000,-7152.516056,-12466.876218,0.000000,0.000000
nodeUD3129225177001FS3129225244001,0.000000,0.000000,-7152.516056,-12466.876218,0.000000,0.000000
node3129225177001UD3129225177001,0.000000,0.000000,-7152.516056,-12466.876218,0.000000,0.000000
nodeOH3129222365001OH3129223338001,0.000000,0.000000,-7150.542295,-12465.717738,0.000000,0.000000
nodeOH3129221393001OH3129222365001,0.000000,0.000000,-7148.574678,-12464.820002,0.000000,0.000000
nodeOH3129221240001OH3129221393001,0.000000,0.000000,-7146.682516,-12463.956692,0.000000,0.000000
nodeOH3129220278001OH3129221240001,0.000000,0.000000,-7144.883220,-12463.135753,0.000000,0.000000
nodeOH3129220226001OH3129220278001,0.000000,0.000000,-7143.130357,-12462.335999,0.000000,0.000000
node3129220206001OH3129220226001,0.000000,0.000000,-7142.028726,-12461.711139,0.000000,0.000000
nodeOH3129220272001FS3129220226003,0.000000,0.000000,-7142.028726,-12461.711139,0.000000,0.000000
node3129220170001OH3129220272001,0.000000,0.000000,-7141.785194,-12461.553777,0.000000,0.000000
nodeOH3129221109001OH3129221110001,0.000000,0.000000,-7141.688567,-12461.517212,0.000000,0.000000
nodeOH3129221103001OH3129221109001,0.000000,0.000000,-7141.673744,-12461.511603,0.000000,0.000000
nodeOH3129212008001OH3129221103001,0.000000,0.000000,-7141.557475,-12461.487971,0.000000,0.000000
nodeOH3129212004001OH3129212008001,0.000000,0.000000,-7141.442767,-12461.464657,0.000000,0.000000
nodeOH3129212013001OH3129212004001,0.000000,0.000000,-7141.364345,-12461.448717,0.000000,0.000000
nodeOH3129212051001OH3129212013001,0.000000,0.000000,-7141.354201,-12461.446656,0.000000,0.000000
node3129212052001OH3129212051001,0.000000,0.000000,-7141.266414,-12461.428813,0.000000,0.000000
nodeOH3129220128001FS3129220226004,0.000000,0.000000,-7142.028726,-12461.711139,0.000000,0.000000
nodeOH3129220123002OH3129220128001,0.000000,0.000000,-7140.872279,-12460.926639,0.000000,0.000000
node3129220154002OH3129220123002,0.000000,0.000000,-7140.228318,-12460.402612,0.000000,0.000000
nodeOH3129211022001OH3129211028001,0.000000,0.000000,-7139.772322,-12460.109640,0.000000,0.000000
node3129211015001OH3129211022001,0.000000,0.000000,-7139.383592,-12459.836538,0.000000,0.000000
nodeOH3129210914001OH3129210927001,0.000000,0.000000,-7139.143592,-12459.657771,0.000000,0.000000
node3129119993001OH3129210914001,0.000000,0.000000,-7139.091171,-12459.625527,0.000000,0.000000
node3129119999001OH3129210917001,0.000000,0.000000,-7139.123583,-12459.637331,0.000000,0.000000
node3129119947001OH3129119967001,0.000000,0.000000,-7139.066120,-12459.625937,0.000000,0.000000
node3129210977001OH3129210967001,0.000000,0.000000,-7139.120803,-12459.661954,0.000000,0.000000
nodeOH3129110069001OH3129211018001,0.000000,0.000000,-7139.766187,-12460.099621,0.000000,0.000000
nodeOH3129110057001OH3129110069001,0.000000,0.000000,-7139.709554,-12460.007144,0.000000,0.000000
nodeOH3129110027001OH3129110057001,0.000000,0.000000,-7139.693272,-12459.980557,0.000000,0.000000
node3129110036001OH3129110027001,0.000000,0.000000,-7139.662124,-12459.929694,0.000000,0.000000
node3129211077001OH3129211066001,0.000000,0.000000,-7139.696959,-12460.129558,0.000000,0.000000
node3129220108001OH3129220118001,0.000000,0.000000,-7140.852205,-12460.923144,0.000000,0.000000
node3129129221001OH3129129168001,0.000000,0.000000,-7140.716811,-12460.880270,0.000000,0.000000
nodeOH3129129266001OH3129129263001,0.000000,0.000000,-7140.627767,-12460.785917,0.000000,0.000000
nodeOH3129129266002OH3129129266001,0.000000,0.000000,-7140.608596,-12460.774117,0.000000,0.000000
nodeOH3129129226001OH3129129266002,0.000000,0.000000,-7140.606499,-12460.772827,0.000000,0.000000
node3129129225001OH3129129226001,0.000000,0.000000,-7140.578792,-12460.755773,0.000000,0.000000
node3129129341001OH3129129361001,0.000000,0.000000,-7141.846984,-12461.701850,0.000000,0.000000
node3129220306001OH3129129345001,0.000000,0.000000,-7141.809678,-12461.770899,0.000000,0.000000
node3129129309001OH3129129318001,0.000000,0.000000,-7141.800899,-12461.832455,0.000000,0.000000
nodeOH3129220331001FS3129220278002,0.000000,0.000000,-7143.130357,-12462.335999,0.000000,0.000000
node3129220331001OH3129220331001,0.000000,0.000000,-7143.071160,-12462.399207,0.000000,0.000000
node3129220303001OH3129220322001,0.000000,0.000000,-7143.057387,-12462.419246,0.000000,0.000000
nodeOH3129221243001FS3129220278001,0.000000,0.000000,-7143.130357,-12462.335999,0.000000,0.000000
node3129221252001OH3129221243001,0.000000,0.000000,-7142.655590,-12462.145467,0.000000,0.000000
node3129221197001OH3129222118001,0.000000,0.000000,-7142.322614,-12462.246209,0.000000,0.000000
node3129222175001OH3129222155001,0.000000,0.000000,-7142.191423,-12462.366902,0.000000,0.000000
nodeOH3129214049001OH3129222192001,0.000000,0.000000,-7142.059096,-12462.420925,0.000000,0.000000
nodeOH3129214076001OH3129214049001,0.000000,0.000000,-7141.916844,-12462.479000,0.000000,0.000000
node3129214055001OH3129214076001,0.000000,0.000000,-7141.803814,-12462.525145,0.000000,0.000000
node3129215002001OH3129215042001,0.000000,0.000000,-7141.647243,-12462.477770,0.000000,0.000000
nodeOH3129214965001OH3129214998001,0.000000,0.000000,-7141.556820,-12462.441272,0.000000,0.000000
nodeOH3129214922001OH3129214965001,0.000000,0.000000,-7141.498212,-12462.417616,0.000000,0.000000
node3129214921001OH3129214922001,0.000000,0.000000,-7141.436534,-12462.392721,0.000000,0.000000
nodeOH3129213846001OH3129213800001,0.000000,0.000000,-7141.419740,-12462.451011,0.000000,0.000000
nodeOH3129213843001OH3129213846001,0.000000,0.000000,-7141.402334,-12462.511420,0.000000,0.000000
nodeOH3129213737001OH3129213843001,0.000000,0.000000,-7141.388593,-12462.559112,0.000000,0.000000
nodeOH3129213734002OH3129213737001,0.000000,0.000000,-7141.377143,-12462.598852,0.000000,0.000000
nodeOH3129213744001OH3129213734002,0.000000,0.000000,-7141.376532,-12462.600972,0.000000,0.000000
nodeOH3129213741002OH3129213744001,0.000000,0.000000,-7141.375921,-12462.603092,0.000000,0.000000
nodeOH3129213690001OH3129213741002,0.000000,0.000000,-7141.364928,-12462.641245,0.000000,0.000000
nodeOH3129214640001OH3129213690001,0.000000,0.000000,-7141.353936,-12462.679398,0.000000,0.000000
node3129214650001OH3129214640001,0.000000,0.000000,-7141.339767,-12462.728573,0.000000,0.000000
nodeOH3129322402001OH3129322309001,0.000000,0.000000,-7175.544284,-12473.376290,0.000000,0.000000
node3129322423001OH3129322402001,0.000000,0.000000,-7175.512656,-12473.379662,0.000000,0.000000
nodeOH3129323310001FS3129322300001,0.000000,0.000000,0.000000,0.000000,-7177.116071,12427.987858
nodeOH3129323370001OH3129323310001,0.000000,0.000000,0.000000,0.000000,-7177.116109,12427.969441
node3129323350001OH3129323370001,0.000000,0.000000,0.000000,0.000000,-7177.116688,12427.689103
nodeOH3129324390001OH3129324360001,0.000000,0.000000,0.000000,0.000000,-7177.256504,12427.560227
nodeOH3129324390002OH3129324390001,0.000000,0.000000,0.000000,0.000000,-7177.302907,12427.540915
nodeOH3129325411002OH3129324390002,0.000000,0.000000,0.000000,0.000000,-7177.306392,12427.539465
node3129325402001OH3129325411002,0.000000,0.000000,0.000000,0.000000,-7177.309877,12427.538014
nodeOH3129325349001OH3129325319001,0.000000,0.000000,0.000000,0.000000,-7177.316735,12427.530662
node3129325359001OH3129325349001,0.000000,0.000000,0.000000,0.000000,-7177.329239,12427.517253
nodeOH3129322392001OH3129322396001,14369.966266,-15.902045,-7178.707890,-12474.243078,-7176.493764,12425.729717
nodeFS3129322392002OH3129322392001,14368.029577,-17.205882,-7178.302884,-12474.973092,-7175.763814,12423.080980
nodeOH3129322392002FS3129322392002,0.000000,0.000000,0.000000,0.000000,-7175.763814,12423.080980
nodeOH3129323363001OH3129322392002,0.000000,0.000000,0.000000,0.000000,-7175.766721,12423.076834
nodeOH3129324334001OH3129323363001,0.000000,0.000000,0.000000,0.000000,-7175.808252,12423.017599
node3129324334001OH3129324334001,0.000000,0.000000,0.000000,0.000000,-7175.831266,12422.986578
node3129324210001OH3129323200001,0.000000,0.000000,0.000000,0.000000,-7175.821511,12422.997579
node3129322373001OH3129322371001,0.000000,0.000000,0.000000,0.000000,-7175.753859,12423.038771
nodeOH3129322295001OH3129322298001,14366.438558,-18.232455,-7178.007924,-12475.535160,-7175.211468,12420.984603
nodeFS3129322295001OH3129322295001,14364.820263,-19.276627,-7177.707906,-12476.106863,-7174.649652,12418.852287
nodeOH3129323285001FS3129322295001,14364.820263,-19.276627,-7177.707906,-12476.106863,-7174.649652,12418.852287
nodeOH3129324265001OH3129323285001,14364.820263,-19.276627,-7177.707906,-12476.106863,-7174.649652,12418.852287
nodeFS3129322276001OH3129322276001,14363.530319,-19.419115,-7177.184395,-12476.219572,-7174.443591,12417.244003
nodeOH3129322206001FS3129322276001,14363.530319,-19.419115,-7177.184395,-12476.219572,-7174.443591,12417.244003
node3129322228001OH3129322206001,14363.631550,-19.135721,-7177.184395,-12476.219572,-7174.443591,12417.244003
node3129321250001OH3129321236001,14363.652209,-18.979345,-7177.184395,-12476.219572,-7174.443591,12417.244003
node3129320277001OH3129320266001,14363.628731,-18.870930,-7177.184395,-12476.219572,-7174.443591,12417.244003
nodeOH3129322177001OH3129322272001,14360.187682,-19.892439,-7175.780035,-12476.571015,-7173.871406,12412.990405
nodeOH3129322172001OH3129322177001,14356.905273,-20.357234,-7174.400979,-12476.916126,-7173.309532,12408.813449
nodeFS3129322172001OH3129322172001,14353.065757,-20.900916,-7172.787862,-12477.319810,-7172.652293,12403.927560
nodeOH3129322132001FS3129322172001,14353.065757,-20.900916,-7172.787862,-12477.319810,-7172.652293,12403.927560
nodeOH3129322112001OH3129322132001,14352.963596,-20.746689,-7172.862079,-12477.045438,-7172.754454,12404.081787
node3129322141001OH3129322112001,14352.920581,-20.681752,-7172.893328,-12476.929913,-7172.797470,12404.146724
nodeSW3129321192001-AOH3129321192001,14352.895163,-20.643380,-7172.911793,-12476.861648,-7172.822888,12404.185096
nodeSW3129321192001-BSW3129321192001-A,14352.895163,-20.643380,-7172.911793,-12476.861648,-7172.822888,12404.185096
nodeUD3129321153001SW3129321192001-B,14352.895163,-20.643380,-7172.911793,-12476.861648,-7172.822888,12404.185096
node3129321153001UD3129321153001,0.000000,0.000000,-7172.779758,-12476.728105,0.000000,0.000000
nodeOH3129313066002OH3129313079001,14350.869391,-21.323528,-7171.777275,-12477.740825,-7172.180558,12400.950083
nodeOH3129313042002OH3129313066002,14348.440297,-21.790919,-7170.659606,-12478.206450,-7171.658838,12397.657112
nodeOH3129312928001OH3129313042002,14345.007566,-22.451425,-7169.080145,-12478.864459,-7170.921558,12393.003571
nodeOH3129312927001OH3129312928001,14341.516653,-23.123125,-7167.473913,-12479.533621,-7170.171781,12388.271157
nodeFS3129312927001OH3129312927001,14341.514226,-23.119326,-7167.473913,-12479.533621,-7170.171781,12388.271157
nodeOH3129311926001FS3129312927001,14341.514226,-23.119326,-7167.473913,-12479.533621,-7170.171781,12388.271157
node3129311916001OH3129311926001,14341.485102,-23.073739,-7167.473913,-12479.533621,-7170.171781,12388.271157
node3129310926001OH3129310955001,14341.485102,-23.073739,-7167.473913,-12479.533621,-7170.171781,12388.271157
nodeOH3129312819001OH3129312913001,14338.272838,-23.756189,-7165.964627,-12480.159016,-7169.462598,12383.853390
node3129312819001OH3129312819001,14335.159355,-24.363818,-7164.515981,-12480.759285,-7168.781909,12379.613122
nodeOH3129311836001FS3129312819002,14335.159355,-24.363818,-7164.515981,-12480.759285,-7168.781909,12379.613122
nodeOH3129310853001OH3129311836001,14335.159355,-24.363818,-7164.515981,-12480.759285,-7168.781909,12379.613122
node3129312962002OH3129312924001,14335.083104,-24.326087,-7164.515981,-12480.759285,-7168.781909,12379.613122
nodeOH3129312850001FS3129312819003,14335.159355,-24.363818,-7164.515981,-12480.759285,-7168.781909,12379.613122
node3129312850001OH3129312850001,14334.354577,-23.938178,-7164.216226,-12480.678443,-7169.018583,12379.550362
nodeOH3129313830002OH3129312890001,14333.299295,-23.364557,-7163.823481,-12480.591259,-7169.349861,12379.484155
nodeOH3129313830005OH3129313830002,14332.209032,-22.771922,-7163.417717,-12480.501186,-7169.692121,12379.415752
nodeSW3129313830002OH3129313830005,0.000000,0.000000,-7163.417717,-12480.501186,0.000000,0.000000
node3129313981001OH3129313880001,14331.066296,-22.150764,-7162.992424,-12480.406777,-7170.050853,12379.344058
nodeOH3129313878001OH3129313879001,14330.750231,-21.977615,-7162.876593,-12480.378604,-7170.147190,12379.330864
node3129313888001OH3129313878001,14330.609757,-21.900660,-7162.825113,-12480.366082,-7170.190006,12379.325001
node3129314836001OH3129314808001,14329.889801,-21.501320,-7162.561345,-12480.296574,-7170.397856,12379.304020
nodeSW3129314808002SW3129314808001,0.000000,0.000000,-7162.561345,-12480.296574,0.000000,0.000000
nodeOH3129314804001SW3129314808002,0.000000,0.000000,-7162.561345,-12480.296574,0.000000,0.000000
nodeOH3129314802001OH3129314804001,0.000000,0.000000,-7162.237592,-12480.116334,0.000000,0.000000
nodeOH3129314709001OH3129314802001,0.000000,0.000000,-7162.088736,-12480.033388,0.000000,0.000000
nodeOH3129314704001OH3129314709001,0.000000,0.000000,-7161.951601,-12479.956972,0.000000,0.000000
node3129314715001OH3129314704001,0.000000,0.000000,-7161.763163,-12479.828854,0.000000,0.000000
nodeOH3129313774001OH3129313794001,0.000000,0.000000,-7161.756277,-12479.814600,0.000000,0.000000
node3129313745001OH3129313774001,0.000000,0.000000,-7161.720910,-12479.741389,0.000000,0.000000
node3129313792001OH3129313600001,0.000000,0.000000,-7161.757057,-12479.897729,0.000000,0.000000
node3129314848001OH3129314848001,14328.663531,-20.955060,-7162.438351,-12480.340543,-7170.770854,12379.192637
nodeOH3129315828001OH3129314878001,14327.999342,-20.642365,-7162.371247,-12480.361665,-7170.978783,12379.134484
nodeOH3129315868001OH3129315828001,14326.717515,-20.214817,-7162.666788,-12480.536797,-7171.416527,12378.875963
nodeOH3129315898001OH3129315868001,14325.564326,-19.807992,-7162.936379,-12480.668386,-7171.761041,12378.696937
nodeOH3129315898002OH3129315898001,14325.180083,-19.663611,-7163.001405,-12480.680220,-7171.877945,12378.650942
nodeSW3129315898001OH3129315898002,14325.092628,-19.636959,-7163.028325,-12480.699576,-7171.903021,12378.633172
nodeSW3129315898002SW3129315898001,14325.092628,-19.636959,-7163.028325,-12480.699576,-7171.903021,12378.633172
nodeOH3129316848001SW3129315898002,14325.092628,-19.636959,-7163.028325,-12480.699576,-7171.903021,12378.633172
nodeOH3129316848002OH3129316848001,14324.486685,-19.452300,-7163.028325,-12480.699576,-7171.903021,12378.633172
nodeOH3129316843001OH3129316848002,14324.396105,-19.424696,-7163.028325,-12480.699576,-7171.903021,12378.633172
nodeOH3129316750001OH3129316843001,14323.680843,-19.206722,-7163.028325,-12480.699576,-7171.903021,12378.633172
nodeOH3129316746001OH3129316750001,14323.190691,-19.074768,-7163.028325,-12480.699576,-7171.903021,12378.633172
node3129316709001OH3129316746001,14322.724318,-18.922267,-7163.028325,-12480.699576,-7171.903021,12378.633172
node3129316711001OH3129316731001,14322.289216,-18.791592,-7163.028325,-12480.699576,-7171.903021,12378.633172
nodeOH3129316634001OH3129316636001,14322.118871,-18.746428,-7163.028325,-12480.699576,-7171.903021,12378.633172
nodeOH3129316631001OH3129316634001,14322.098133,-18.737740,-7163.028325,-12480.699576,-7171.903021,12378.633172
node3129316559001OH3129316631001,14322.065730,-18.724166,-7163.028325,-12480.699576,-7171.903021,12378.633172
nodeSW3129315868002SW3129315868001,14325.564326,-19.807992,-7162.936379,-12480.668386,-7171.761041,12378.696937
nodeOH3129315863001SW3129315868002,14325.564326,-19.807992,-7162.936379,-12480.668386,-7171.761041,12378.696937
node3129315882001OH3129315863001,14324.851278,-19.576670,-7162.936379,-12480.668386,-7171.761041,12378.696937
node3129315833001OH3129315833001,14324.876943,-19.551683,-7162.936379,-12480.668386,-7171.761041,12378.696937
node3129315789001OH3129315770001,14324.464092,-19.503809,-7162.936379,-12480.668386,-7171.761041,12378.696937
node3129315776001OH3129315767002,14324.175588,-19.446965,-7162.936379,-12480.668386,-7171.761041,12378.696937
nodeOH3129315754001OH3129315774001,14323.927186,-19.376264,-7162.936379,-12480.668386,-7171.761041,12378.696937
node3129315734001OH3129315754001,14323.903290,-19.371601,-7162.936379,-12480.668386,-7171.761041,12378.696937
node3129315742001OH3129315762001,14323.927186,-19.376264,-7162.936379,-12480.668386,-7171.761041,12378.696937
node3129315731001OH3129315680001,14323.704306,-19.307797,-7162.936379,-12480.668386,-7171.761041,12378.696937
node3129315632001OH3129315664001,14323.433379,-19.258784,-7162.936379,-12480.668386,-7171.761041,12378.696937
nodeSW3129314878001-AOH3129314878002,0.000000,0.000000,-7162.295628,-12480.337150,0.000000,0.000000
nodeSW3129314878001-BSW3129314878001-A,0.000000,0.000000,-7162.295628,-12480.337150,0.000000,0.000000
nodeOH3129314873002SW3129314878001-B,0.000000,0.000000,-7162.295628,-12480.337150,0.000000,0.000000
node3129314866001OH3129314873002,0.000000,0.000000,-7161.864601,-12480.197417,0.000000,0.000000
node3129315707001OH3129314778002,0.000000,0.000000,-7161.488451,-12480.102406,0.000000,0.000000
node3129314753001OH3129314773001,0.000000,0.000000,-7161.285740,-12480.160225,0.000000,0.000000
node3129314658001OH3129314678001,0.000000,0.000000,-7161.174698,-12480.098912,0.000000,0.000000
node3129315606001OH3129314676001,0.000000,0.000000,-7161.157002,-12480.092959,0.000000,0.000000
node3129312835001OH3129312826001,14333.034875,-24.908896,-7163.179562,-12481.333109,-7167.954121,12375.993969
nodeOH3129312727001OH3129312822001,14330.609680,-25.525468,-7161.621436,-12481.981782,-7166.966207,12371.836866
nodeFS3129312727001OH3129312727001,14327.810505,-26.237119,-7159.823038,-12482.730485,-7165.825951,12367.038715
nodeOH3129312725001FS3129312727001,0.000000,0.000000,0.000000,0.000000,-7165.825951,12367.038715
nodeOH3129312775001OH3129312725001,0.000000,0.000000,0.000000,0.000000,-7165.811637,12367.010362
nodeOH3129312785001OH3129312775001,0.000000,0.000000,0.000000,0.000000,-7165.773529,12366.934876
node3129313707001OH3129312785001,0.000000,0.000000,0.000000,0.000000,-7165.766093,12366.920148
nodeOH3129312617001OH3129312713001,14325.424989,-26.830929,-7158.339187,-12483.355275,-7164.907574,12363.021296
nodeOH3129312622001OH3129312617001,14322.293998,-27.610305,-7156.391632,-12484.175311,-7163.702203,12357.748433
nodeOH3129312528001OH3129312622001,14319.289164,-28.358277,-7154.522550,-12484.962306,-7162.545401,12352.688029
nodeFS3129312528001OH3129312528001,14316.525176,-29.046297,-7152.803280,-12485.686221,-7161.481320,12348.033231
nodeOH3129312527001FS3129312528001,0.000000,0.000000,0.000000,0.000000,-7161.481320,12348.033231
nodeOH3129312589001OH3129312527001,0.000000,0.000000,0.000000,0.000000,-7161.467875,12348.014457
node3129312590001OH3129312589001,0.000000,0.000000,0.000000,0.000000,-7161.335916,12347.830198
nodeOH3129312428001OH3129312523001,14313.680193,-29.734597,-7151.151899,-12486.410877,-7160.521112,12343.398772
nodeOH3129312424001OH3129312428001,14310.917503,-30.402987,-7149.548285,-12487.114572,-7159.588678,12338.898369
nodeFS3129312424001OH3129312424001,14308.201837,-31.060000,-7147.971967,-12487.806289,-7158.672116,12334.474568
nodeOH3129312423001FS3129312424001,0.000000,0.000000,-7147.971967,-12487.806289,0.000000,0.000000
nodeOH3129312453002OH3129312423001,0.000000,0.000000,-7147.914757,-12487.804592,0.000000,0.000000
node3129312471001OH3129312453002,0.000000,0.000000,-7147.622790,-12487.795933,0.000000,0.000000
nodeOH3129313443001OH3129313413001,0.000000,0.000000,-7147.166823,-12487.772585,0.000000,0.000000
node3129313446001OH3129313443001,0.000000,0.000000,-7146.933971,-12487.698811,0.000000,0.000000
node3129313462001OH3129313463001,0.000000,0.000000,-7146.818825,-12487.657945,0.000000,0.000000
node3129313466001OH3129313483001,0.000000,0.000000,-7146.747968,-12487.649783,0.000000,0.000000
node3129313493001OH3129314403001,0.000000,0.000000,-7146.707584,-12487.646071,0.000000,0.000000
nodeOH3129314493001OH3129314433001,0.000000,0.000000,-7146.685810,-12487.613534,0.000000,0.000000
nodeOH3129314397001OH3129314493001,0.000000,0.000000,-7146.620923,-12487.516577,0.000000,0.000000
nodeOH3129314393001OH3129314397001,0.000000,0.000000,-7146.556472,-12487.420270,0.000000,0.000000
node3129315302001OH3129314393001,0.000000,0.000000,-7146.505738,-12487.344461,0.000000,0.000000
nodeSW3129312330001OH3129312330001,14305.742859,-31.752034,-7146.773305,-12488.541667,-7157.954860,12330.488633
nodeSW3129312330002SW3129312330001,14305.742859,-31.752034,-7146.773305,-12488.541667,-7157.954860,12330.488633
nodeOH3129312325001SW3129312330002,14305.742859,-31.752034,-7146.773305,-12488.541667,-7157.954860,12330.488633
node3129312354001OH3129312325001,14302.833475,-32.570826,-7145.355087,-12489.411744,-7157.106225,12325.772600
nodeOH3129312225001OH3129312230001,14299.738424,-33.431067,-7143.851243,-12490.325726,-7156.204077,12320.777825
nodeOH3129312130001OH3129312225001,14296.436225,-34.348883,-7142.246749,-12491.300881,-7155.241549,12315.448754
nodeOH3129312114001OH3129312130001,14293.134025,-35.266699,-7140.642255,-12492.276036,-7154.279021,12310.119683
nodeFS3129312114001OH3129312114001,14289.965863,-36.147260,-7139.102887,-12493.211609,-7153.355563,12305.006921
nodeOH3129311123001FS3129312114001,14289.965863,-36.147260,-7139.102887,-12493.211609,-7153.355563,12305.006921
nodeOH3129310122001OH3129311123001,14289.626516,-36.073168,-7139.102887,-12493.211609,-7153.355563,12305.006921
nodeOH3129310119001OH3129310122001,14289.250090,-35.990980,-7139.102887,-12493.211609,-7153.355563,12305.006921
nodeOH3129219294001OH3129310119001,14289.250090,-35.990980,-7139.102887,-12493.211609,-7153.355563,12305.006921
nodeOH3129219361001OH3129219294001,14289.250090,-35.990980,-7139.102887,-12493.211609,-7153.355563,12305.006921
nodeOH3129219288001OH3129219361001,14289.250090,-35.990980,-7139.102887,-12493.211609,-7153.355563,12305.006921
node3129219200001OH3129219288001,14289.250090,-35.990980,-7139.102887,-12493.211609,-7153.355563,12305.006921
nodeOH3129219142001OH3129219173001,14289.074371,-35.952614,-7139.102887,-12493.211609,-7153.355563,12305.006921
node3129219112001OH3129219142001,14289.074371,-35.952614,-7139.102887,-12493.211609,-7153.355563,12305.006921
node3128300097001OH3128300090001,14288.991289,-35.935392,-7139.102887,-12493.211609,-7153.355563,12305.006921
nodeFS3129312121001OH3129312121001,14287.931575,-36.703428,-7138.039166,-12493.800613,-7152.704327,12301.635779
nodeOH3129312101001FS3129312121001,14287.931575,-36.703428,-7138.039166,-12493.800613,-7152.704327,12301.635779
node3129311191001OH3129312101001,14287.919039,-36.711948,-7138.040311,-12493.787154,-7152.691729,12301.631413
nodeOH3129312131001FS3129312121002,0.000000,0.000000,0.000000,0.000000,-7152.704327,12301.635779
nodeOH3129313101001OH3129312131001,0.000000,0.000000,0.000000,0.000000,-7152.723460,12301.595140
node3128403090002OH3129313101001,0.000000,0.000000,0.000000,0.000000,-7152.852416,12301.321233
nodeOH3129313185001OH3129313181001,0.000000,0.000000,0.000000,0.000000,-7152.799799,12301.075112
node3129313175001OH3129313185001,0.000000,0.000000,0.000000,0.000000,-7152.802102,12301.040877
node3128404055001OH3128404084001,0.000000,0.000000,0.000000,0.000000,-7152.734061,12300.948343
nodeOH3128403014001OH3128403027001,14285.698352,-37.244755,-7136.896983,-12494.421623,-7152.031286,12298.036714
nodeOH3128403011001OH3128403014001,14283.500390,-37.777535,-7135.772835,-12495.032828,-7151.368871,12294.494476
nodeOH3128402918001OH3128403011001,14282.019410,-38.136521,-7135.015387,-12495.444656,-7150.922538,12292.107728
nodeOH3128402915001OH3128402918001,14280.279228,-38.609916,-7134.088550,-12496.052208,-7150.377870,12289.182926
nodeOH3128402912001OH3128402915001,14278.595914,-39.067840,-7133.192002,-12496.639905,-7149.851002,12286.353707
nodeOH3128402820001OH3128402912001,14276.878479,-39.535047,-7132.277280,-12497.239515,-7149.313454,12283.467138
nodeFS3128402820001OH3128402820001,14275.240660,-39.980595,-7131.404963,-12497.811328,-7148.800825,12280.714384
nodeOH3128401800001FS3128402820001,14275.240660,-39.980595,-7131.404963,-12497.811328,-7148.800825,12280.714384
nodeOH3128401840001OH3128401800001,14275.226219,-39.965959,-7131.404963,-12497.811328,-7148.800825,12280.714384
nodeOH3128401838001OH3128401840001,14275.184016,-39.923187,-7131.404963,-12497.811328,-7148.800825,12280.714384
node3128401848001OH3128401838001,14275.181584,-39.916870,-7131.404963,-12497.811328,-7148.800825,12280.714384
nodeOH3128402813001OH3128402816001,14273.355635,-40.519217,-7130.347198,-12498.483337,-7148.155690,12277.480549
node3128402842001OH3128402813001,14271.671382,-41.000471,-7129.402094,-12499.083771,-7147.579268,12274.591145
nodeOH3128402724001OH3128402718001,14268.786240,-41.811047,-7127.813631,-12500.096657,-7146.623115,12269.696343
nodeOH3128402705001OH3128402724001,14266.058265,-42.577467,-7126.311699,-12501.054366,-7145.719049,12265.068183
nodeOH3128401797001OH3128402705001,14265.439720,-42.371970,-7125.986325,-12500.959001,-7145.830409,12264.338887
nodeOH3128401787001OH3128401797001,14265.042852,-42.240121,-7125.777561,-12500.897814,-7145.901859,12263.870960
nodeOH3128401777002OH3128401787001,14264.789661,-42.156005,-7125.644375,-12500.858778,-7145.947442,12263.572436
nodeSW3128401777001-AOH3128401777002,14264.532920,-42.070709,-7125.509321,-12500.819195,-7145.993664,12263.269725
nodeSW3128401777001-BSW3128401777001-A,14264.532920,-42.070709,-7125.509321,-12500.819195,-7145.993664,12263.269725
nodeOH3128401727001SW3128401777001-B,14264.532920,-42.070709,-7125.509321,-12500.819195,-7145.993664,12263.269725
nodeOH3128400787001OH3128401727001,14262.995564,-41.559960,-7124.700625,-12500.582172,-7146.270441,12261.457106
nodeFS3128400787001OH3128400787001,14261.936136,-41.201922,-7124.147389,-12500.411795,-7146.458342,12260.224980
nodeOH3128400777001FS3128400787001,0.000000,0.000000,0.000000,0.000000,-7146.458342,12260.224980
nodeOH3128400874001OH3128400777001,0.000000,0.000000,0.000000,0.000000,-7146.454836,12260.194947
node3128400864001OH3128400874001,0.000000,0.000000,0.000000,0.000000,-7146.425499,12259.943616
node3128400834001OH3128400747002,14260.823889,-40.815241,-7123.632042,-12500.213275,-7146.693808,12259.059414
node3128309765001OH3128309777001,14259.025393,-40.224125,-7122.806108,-12499.962716,-7147.063839,12257.121587
nodeOH3128309777002FS3128309777001,0.000000,0.000000,0.000000,0.000000,-7147.063839,12257.121587
nodeOH3128309874001OH3128309777002,0.000000,0.000000,0.000000,0.000000,-7147.063839,12257.121587
node3128309941001OH3128309874001,0.000000,0.000000,0.000000,0.000000,-7147.063839,12257.121587
nodeFS3128309737001OH3128309737001,14257.757362,-39.778086,-7122.180672,-12499.760327,-7147.263807,12255.731964
nodeOH3128309738001FS3128309737001,0.000000,0.000000,0.000000,0.000000,-7147.263807,12255.731964
nodeOH3128309740001OH3128309738001,0.000000,0.000000,0.000000,0.000000,-7147.261981,12255.725422
node3128309831001OH3128309740001,0.000000,0.000000,0.000000,0.000000,-7147.253867,12255.696350
nodeFS3128308797001OH3128308797001,14256.786380,-39.435855,-7121.721242,-12499.601985,-7147.431082,12254.701785
nodeOH3128308788001FS3128308797001,14256.786380,-39.435855,-7121.721242,-12499.601985,-7147.431082,12254.701785
nodeOH3128308884001OH3128308788001,14256.739076,-39.441666,-7121.721242,-12499.601985,-7147.444974,12254.681923
node3128308895001OH3128308884001,14256.510321,-39.469767,-7121.721242,-12499.601985,-7147.512154,12254.585876
node3128308890001OH3128308890001,0.000000,0.000000,0.000000,0.000000,-7147.534078,12254.556853
nodeOH3128308707001OH3128308767001,14255.914418,-39.068799,-7121.259173,-12499.410260,-7147.568569,12253.752762
nodeOH3128307757001OH3128308707001,14254.399958,-38.431281,-7120.456633,-12499.077262,-7147.807363,12252.104459
nodeFS3128307757001OH3128307757001,14253.069069,-37.871037,-7119.751371,-12498.784628,-7148.017211,12250.655951
nodeOH3128307757002FS3128307757001,0.000000,0.000000,0.000000,0.000000,-7148.017211,12250.655951
nodeOH3128307759001OH3128307757002,0.000000,0.000000,0.000000,0.000000,-7148.038942,12250.665692
node3128307891001OH3128307759001,0.000000,0.000000,0.000000,0.000000,-7148.108481,12250.696864
nodeOH3128306757001OH3128307707001,14251.760019,-37.299120,-7119.022635,-12498.479238,-7148.178971,12249.206281
nodeOH3128306756001OH3128306757001,14250.439684,-36.722273,-7118.287617,-12498.171217,-7148.342125,12247.744114
node3128306763001OH3128306756001,14249.909474,-36.462361,-7117.955382,-12498.022277,-7148.354460,12247.140968
nodeOH3128307705001FS3128306756001,0.000000,0.000000,-7117.955382,-12498.022277,0.000000,0.000000
nodeOH3128307705002OH3128307705001,0.000000,0.000000,-7116.959954,-12496.442676,0.000000,0.000000
node3128307714001OH3128307705002,0.000000,0.000000,-7116.849804,-12496.267885,0.000000,0.000000
node3128306690001OH3128307701001,0.000000,0.000000,-7116.178887,-12495.230767,0.000000,0.000000
nodeOH3128307605001OH3128307609001,0.000000,0.000000,-7115.860395,-12494.753169,0.000000,0.000000
nodeOH3128306695002OH3128307605001,0.000000,0.000000,-7115.197411,-12493.758987,0.000000,0.000000
node3128306675001OH3128306695002,0.000000,0.000000,-7115.178208,-12493.736027,0.000000,0.000000
node3128306672001OH3128307601001,0.000000,0.000000,-7114.636413,-12492.849801,0.000000,0.000000
node3128307530001OH3128307509001,0.000000,0.000000,-7114.432566,-12492.499196,0.000000,0.000000
node3128306577001OH3128307507001,0.000000,0.000000,-7114.267418,-12492.234766,0.000000,0.000000
node3128307534001OH3128307515001,0.000000,0.000000,-7114.149343,-12492.032820,0.000000,0.000000
node3128306584001OH3128306595001,0.000000,0.000000,-7114.079614,-12491.909086,0.000000,0.000000
nodeFS3128305796001OH3128305796001,14248.918580,-36.391967,-7117.243195,-12498.827071,-7148.087595,12244.962347
nodeOH3128305798001FS3128305796001,0.000000,0.000000,-7117.243195,-12498.827071,0.000000,0.000000
nodeOH3128306708001OH3128305798001,0.000000,0.000000,-7117.221275,-12498.820901,0.000000,0.000000
nodeOH3128306710001OH3128306708001,0.000000,0.000000,-7117.218815,-12498.820209,0.000000,0.000000
node3128306730001OH3128306710001,0.000000,0.000000,-7117.191974,-12498.812654,0.000000,0.000000
node3128305780001OH3128305891001,0.000000,0.000000,-7117.183861,-12498.816408,0.000000,0.000000
node3128305876001OH3128305885001,0.000000,0.000000,-7117.164707,-12498.826069,0.000000,0.000000
nodeFS3128305746001OH3128305746001,14247.884776,-36.344272,-7116.575477,-12499.664015,-7147.839074,12242.717101
nodeOH3128305758001FS3128305746001,0.000000,0.000000,0.000000,0.000000,-7147.839074,12242.717101
node3128305749001OH3128305758001,0.000000,0.000000,0.000000,0.000000,-7147.846625,12242.706853
node3128305854001OH3128305852001,0.000000,0.000000,0.000000,0.000000,-7147.846625,12242.706853
node3128304785002OH3128305706001,14247.201480,-36.309476,-7116.174986,-12500.185231,-7147.691911,12241.282382
nodeOH3128305804001FS3128305706001,0.000000,0.000000,0.000000,0.000000,-7147.691911,12241.282382
node3128305813001OH3128305804001,0.000000,0.000000,0.000000,0.000000,-7147.561557,12241.087569
node3128305826002OH3128305806002,0.000000,0.000000,0.000000,0.000000,-7147.545223,12241.054442
node3128305911001OH3128305901001,0.000000,0.000000,0.000000,0.000000,-7147.525647,12241.020918
nodeOH3128304726001OH3128304766001,14246.304832,-36.232157,-7115.811543,-12500.721042,-7147.620777,12239.696165
nodeOH3128303776001OH3128304726001,14245.504457,-36.201788,-7115.502490,-12501.276325,-7147.546238,12238.222630
nodeOH3128303727001OH3128303776001,14244.645954,-36.169214,-7115.170992,-12501.871936,-7147.466285,12236.642078
nodeSW3128303727001OH3128303727001,14243.563422,-36.097485,-7114.667651,-12502.654714,-7147.314389,12234.491367
nodeSW3128303727002SW3128303727001,14243.563422,-36.097485,-7114.667651,-12502.654714,-7147.314389,12234.491367
nodeOH3128302797001SW3128303727002,14243.563422,-36.097485,-7114.667651,-12502.654714,-7147.314389,12234.491367
nodeFS3128302797002OH3128302797001,14243.127968,-36.068631,-7114.465179,-12502.969592,-7147.253288,12233.626232
nodeOH3128303709001FS3128302797002,0.000000,0.000000,0.000000,0.000000,-7147.253288,12233.626232
node3128303720001OH3128303709001,0.000000,0.000000,0.000000,0.000000,-7147.276154,12233.632779
nodeOH3128302708001OH3128302767002,14242.473733,-36.044999,-7114.168880,-12503.452877,-7147.141408,12232.308758
nodeFS3128302708001OH3128302708001,14241.384697,-36.005662,-7113.675661,-12504.257353,-7146.955172,12230.115695
nodeOH3128301749001FS3128302708001,14241.384697,-36.005662,-7113.675661,-12504.257353,-7146.955172,12230.115695
nodeOH3128302716001FS3128302708002,0.000000,0.000000,-7113.675661,-12504.257353,0.000000,0.000000
nodeOH3128301690001OH3128302716001,0.000000,0.000000,-7113.579719,-12504.232971,0.000000,0.000000
nodeOH3128301653001OH3128301690001,0.000000,0.000000,-7113.243921,-12504.147636,0.000000,0.000000
nodeOH3128301618001OH3128301653001,0.000000,0.000000,-7112.915503,-12504.064175,0.000000,0.000000
nodeOH3128300782001OH3128301618001,0.000000,0.000000,-7112.687079,-12503.902374,0.000000,0.000000
node3128300763001OH3128300782001,0.000000,0.000000,-7112.503263,-12503.772170,0.000000,0.000000
nodeOH3128209788001OH3128300744001,0.000000,0.000000,-7112.399660,-12503.726722,0.000000,0.000000
node3128209776001OH3128209788001,0.000000,0.000000,-7112.296262,-12503.658474,0.000000,0.000000
nodeOH3128209718002OH3128209789001,0.000000,0.000000,-7112.292324,-12503.655337,0.000000,0.000000
nodeOH3128208758001OH3128209718002,0.000000,0.000000,-7112.241450,-12503.614804,0.000000,0.000000
node3128208766002OH3128208758001,0.000000,0.000000,-7112.200341,-12503.582052,0.000000,0.000000
nodeOH3128300581001OH3128301528001,0.000000,0.000000,-7112.869018,-12504.158210,0.000000,0.000000
node3128300400001OH3128300581001,0.000000,0.000000,-7112.807190,-12504.283280,0.000000,0.000000
node3128300538001OH3128300546001,0.000000,0.000000,-7112.765098,-12504.280469,0.000000,0.000000
nodeOH3128300455002OH3128300479001,0.000000,0.000000,-7112.807190,-12504.283280,0.000000,0.000000
nodeOH3128301750001OH3128301790001,14240.864036,-36.026839,-7113.508992,-12504.675978,-7146.885781,12229.061616
node3128301821001OH3128301750001,14239.955163,-35.976037,-7113.356449,-12505.237915,-7146.864133,12227.656830
nodeOH3128300750002OH3128301710001,14239.015180,-35.912680,-7113.178836,-12505.818145,-7146.804855,12226.180741
nodeOH3128300710001OH3128300750002,14237.783477,-35.829660,-7112.946102,-12506.578446,-7146.727179,12224.246556
nodeOH3128209760001OH3128300710001,14236.885167,-35.769112,-7112.776364,-12507.132952,-7146.670529,12222.835910
nodeOH3128208700001OH3128209760001,14235.968336,-35.707316,-7112.603126,-12507.698891,-7146.612710,12221.396178
nodeOH3128208750001OH3128208700001,14234.551414,-35.611812,-7112.335394,-12508.573523,-7146.523354,12219.171138
nodeOH3128207799001OH3128208750001,14233.666996,-35.552201,-7112.168280,-12509.119454,-7146.467580,12217.782306
nodeOH3128207739001OH3128207799001,14232.476967,-35.471990,-7111.943421,-12509.854031,-7146.392533,12215.913564
nodeOH3128206789001OH3128207739001,14231.374917,-35.397709,-7111.735185,-12510.534301,-7146.323034,12214.182977
nodeOH3128206749001OH3128206789001,14230.406973,-35.399464,-7111.932558,-12511.108661,-7146.365347,12212.934257
nodeOH3128206739004OH3128206749001,14229.883064,-35.394765,-7112.041569,-12511.412017,-7146.386876,12212.273411
nodeOH3128206739002OH3128206739004,14229.761070,-35.393670,-7112.066953,-12511.482655,-7146.391889,12212.119530
nodeOH3128206740001OH3128206739002,14229.556758,-35.391838,-7112.109464,-12511.600957,-7146.400285,12211.861816
nodeOH3128206835001OH3128206740001,14228.636985,-35.383588,-7112.300844,-12512.133528,-7146.438081,12210.701636
nodeOH3128206829002OH3128206835001,14227.951784,-35.377443,-7112.443415,-12512.530277,-7146.466238,12209.837339
nodeOH3128206955002OH3128206829002,14227.861604,-35.376634,-7112.462179,-12512.582493,-7146.469944,12209.723588
nodeFS3128206955001OH3128206955002,14226.841948,-35.367488,-7112.674341,-12513.172899,-7146.511845,12208.437419
nodeOH3128207933001FS3128206955001,14226.841948,-35.367488,-7112.674341,-12513.172899,-7146.511845,12208.437419
node3128207924001OH3128207933001,14226.832822,-35.336285,-7112.674341,-12513.172899,-7146.511845,12208.437419
nodeOH3128206869001FS3128206955002,14226.841948,-35.367488,-7112.674341,-12513.172899,-7146.511845,12208.437419
nodeOH3128206862002OH3128206869001,14226.598103,-35.156857,-7112.674341,-12513.172899,-7146.511845,12208.437419
node3128206871001OH3128206862002,14226.335501,-34.930024,-7112.674341,-12513.172899,-7146.511845,12208.437419
nodeOH3128207865001OH3128207835001,14226.143544,-34.723941,-7112.674341,-12513.172899,-7146.511845,12208.437419
node3128207832001OH3128207865001,14226.073742,-34.649002,-7112.674341,-12513.172899,-7146.511845,12208.437419
nodeOH3128208845001OH3128208805001,14226.086974,-34.577758,-7112.674341,-12513.172899,-7146.511845,12208.437419
node3128208843002OH3128208845001,14226.112299,-34.520388,-7112.674341,-12513.172899,-7146.511845,12208.437419
node3128207861001OH3128207851002,14226.042812,-34.630647,-7112.674341,-12513.172899,-7146.511845,12208.437419
nodeOH3128206980001OH3128206969001,14226.193329,-35.446300,-7112.746581,-12513.632861,-7146.458756,12207.437235
nodeSW3128206980001-AOH3128206980001,14226.072060,-35.461035,-7112.760087,-12513.718858,-7146.448831,12207.250234
nodeSW3128206980001-BSW3128206980001-A,14226.072060,-35.461035,-7112.760087,-12513.718858,-7146.448831,12207.250234
nodeOH3128207920001SW3128206980001-B,14226.072060,-35.461035,-7112.760087,-12513.718858,-7146.448831,12207.250234
nodeOH3128207930001OH3128207920001,14224.707454,-34.703351,-7112.760087,-12513.718858,-7146.448831,12207.250234
nodeOH3128208032001OH3128207930001,14224.332188,-34.494988,-7112.760087,-12513.718858,-7146.448831,12207.250234
node3128208013001OH3128208032001,14223.922806,-34.267683,-7112.760087,-12513.718858,-7146.448831,12207.250234
nodeFS3128208041001OH3128208041001,14223.908712,-34.236154,-7112.760087,-12513.718858,-7146.448831,12207.250234
nodeOH3128209011002FS3128208041001,14223.908712,-34.236154,-7112.760087,-12513.718858,-7146.448831,12207.250234
nodeOH3128208970001OH3128209011002,14223.893273,-34.201616,-7112.760087,-12513.718858,-7146.448831,12207.250234
node3128208980001OH3128208970001,14223.880722,-34.173540,-7112.760087,-12513.718858,-7146.448831,12207.250234
node3128208017001OH3128208047001,14222.092654,-33.282605,-7112.760087,-12513.718858,-7146.448831,12207.250234
node3128208030001OH3129117153001,14220.307330,-32.320712,-7112.760087,-12513.718858,-7146.448831,12207.250234
node3129117146001OH3129117156001,14218.993031,-31.441806,-7112.760087,-12513.718858,-7146.448831,12207.250234
nodeOH3129117168001OH3129117157001,14218.740942,-31.288209,-7112.760087,-12513.718858,-7146.448831,12207.250234
node3129117160001OH3129117168001,14218.300635,-31.019930,-7112.760087,-12513.718858,-7146.448831,12207.250234
nodeOH3129118208002OH3129117282001,14217.211740,-30.362861,-7112.760087,-12513.718858,-7146.448831,12207.250234
nodeOH3129117375001OH3129118208002,14217.094185,-29.829282,-7112.760087,-12513.718858,-7146.448831,12207.250234
nodeFS3129117375001OH3129117375001,14216.809016,-29.561301,-7112.760087,-12513.718858,-7146.448831,12207.250234
nodeOH3129117367002FS3129117375001,14216.809016,-29.561301,-7112.760087,-12513.718858,-7146.448831,12207.250234
nodeOH3129116397002OH3129117367002,14216.753311,-29.503221,-7112.760087,-12513.718858,-7146.448831,12207.250234
nodeOH3129116337002OH3129116397002,14216.558631,-29.300240,-7112.760087,-12513.718858,-7146.448831,12207.250234
node3129116441001OH3129116337002,14216.609640,-29.119792,-7112.760087,-12513.718858,-7146.448831,12207.250234
nodeOH3129115581001OH3129115397001,14216.644639,-28.998254,-7112.760087,-12513.718858,-7146.448831,12207.250234
nodeOH3129115594001OH3129115581001,14216.638661,-28.981253,-7112.760087,-12513.718858,-7146.448831,12207.250234
node3129115464001OH3129115594001,14216.603989,-28.882645,-7112.760087,-12513.718858,-7146.448831,12207.250234
node3129115468001OH3129115476001,14216.549818,-28.878311,-7112.760087,-12513.718858,-7146.448831,12207.250234
node3129116382001OH3129116384001,14216.444565,-29.309210,-7112.760087,-12513.718858,-7146.448831,12207.250234
node3129118224001OH3129118225001,14217.146566,-29.793617,-7112.760087,-12513.718858,-7146.448831,12207.250234
nodeOH3129118337002OH3129118324001,14217.134158,-29.614601,-7112.760087,-12513.718858,-7146.448831,12207.250234
nodeOH3129119317001OH3129118337002,14217.152229,-29.517544,-7112.760087,-12513.718858,-7146.448831,12207.250234
nodeOH3129118451001FS3129118337001,14217.152229,-29.517544,-7112.760087,-12513.718858,-7146.448831,12207.250234
nodeOH3129118489001OH3129118451001,14217.173532,-29.403132,-7112.760087,-12513.718858,-7146.448831,12207.250234
node3129118572001OH3129118489001,14217.228943,-29.105534,-7112.760087,-12513.718858,-7146.448831,12207.250234
node3129119511001OH3129119513001,14217.201816,-29.004214,-7112.760087,-12513.718858,-7146.448831,12207.250234
node3129119535001OH3129119543002,14217.239290,-28.936663,-7112.760087,-12513.718858,-7146.448831,12207.250234
node3129119470001OH3129119571002,14217.254693,-28.890323,-7112.760087,-12513.718858,-7146.448831,12207.250234
nodeFS3129117291001OH3129117291001,14216.926009,-30.266674,-7112.760087,-12513.718858,-7146.448831,12207.250234
nodeOH3129118201001FS3129117291001,14216.926009,-30.266674,-7112.760087,-12513.718858,-7146.448831,12207.250234
nodeOH3129118119001OH3129118201001,14216.479196,-30.116261,-7112.760087,-12513.718858,-7146.448831,12207.250234
node3129118109001OH3129118119001,14216.434167,-30.116928,-7112.760087,-12513.718858,-7146.448831,12207.250234
nodeOH3129118190001OH3129118281001,14215.367139,-29.629115,-7112.760087,-12513.718858,-7146.448831,12207.250234
node3129118199001OH3129118190001,14215.324065,-29.627611,-7112.760087,-12513.718858,-7146.448831,12207.250234
node3129119233001OH3129119221002,14214.834517,-29.330009,-7112.760087,-12513.718858,-7146.448831,12207.250234
nodeOH3129119188001OH3129119281002,14213.991849,-28.909986,-7112.760087,-12513.718858,-7146.448831,12207.250234
node3129210118001OH3129119188001,14213.867322,-28.856608,-7112.760087,-12513.718858,-7146.448831,12207.250234
nodeOH3129119175001OH3129119185001,14213.754585,-28.808284,-7112.760087,-12513.718858,-7146.448831,12207.250234
node3129119134001OH3129119175001,14213.760548,-28.802191,-7112.760087,-12513.718858,-7146.448831,12207.250234
node3129210121001OH3129119181001,14213.599299,-28.780990,-7112.760087,-12513.718858,-7146.448831,12207.250234
nodeOH3128200094001OH3128200085001,14213.443478,-28.731798,-7112.760087,-12513.718858,-7146.448831,12207.250234
nodeOH3128301061002OH3128200094001,14213.434574,-28.728987,-7112.760087,-12513.718858,-7146.448831,12207.250234
node3128300950001OH3128301061002,14213.265842,-28.675718,-7112.760087,-12513.718858,-7146.448831,12207.250234
nodeGEN3129210211001OH3129210211002,14213.705490,-28.760772,-7112.760087,-12513.718858,-7146.448831,12207.250234
nodeOH3129210246001OH3129210241002,14213.386216,-28.586924,-7112.760087,-12513.718858,-7146.448831,12207.250234
node3129210248001OH3129210246001,14213.277313,-28.582132,-7112.760087,-12513.718858,-7146.448831,12207.250234
node3129210199001OH3129210281001,14213.068018,-28.488202,-7112.760087,-12513.718858,-7146.448831,12207.250234
nodeOH3129211238002OH3129210298002,14212.598756,-28.365490,-7112.760087,-12513.718858,-7146.448831,12207.250234
node3129211227001OH3129211238002,14212.531897,-28.361277,-7112.760087,-12513.718858,-7146.448831,12207.250234
node3129210384001OH3129210393002,14212.404886,-28.295579,-7112.760087,-12513.718858,-7146.448831,12207.250234
nodeOH3129211332001OH3129211303001,14212.397728,-28.293339,-7112.760087,-12513.718858,-7146.448831,12207.250234
node3129211335001OH3129211332001,14212.332855,-28.273032,-7112.760087,-12513.718858,-7146.448831,12207.250234
node3129211100001OH3129211262002,14212.842621,-28.454008,-7112.760087,-12513.718858,-7146.448831,12207.250234
nodeOH3129210153001OH3129210148002,14213.414939,-28.504697,-7112.760087,-12513.718858,-7146.448831,12207.250234
node3129210100001OH3129210153001,14213.423400,-28.463922,-7112.760087,-12513.718858,-7146.448831,12207.250234
node3129211125001OH3129211136001,14213.395489,-28.389975,-7112.760087,-12513.718858,-7146.448831,12207.250234
node3129211162001OH3129211176001,14213.351308,-28.373298,-7112.760087,-12513.718858,-7146.448831,12207.250234
nodeOH3129119228002OH3129119222001,14214.834517,-29.330009,-7112.760087,-12513.718858,-7146.448831,12207.250234
nodeOH3129119239001OH3129119228002,14214.834517,-29.330009,-7112.760087,-12513.718858,-7146.448831,12207.250234
node3129117109001OH3129117117002,14218.740942,-31.288209,-7112.760087,-12513.718858,-7146.448831,12207.250234
node3129117193001OH3129117161001,14220.293033,-32.312391,-7112.760087,-12513.718858,-7146.448831,12207.250234
nodeFS3128207081001OH3128207081002,0.000000,0.000000,0.000000,0.000000,-7146.203992,12206.922475
nodeOH3128207021001FS3128207081001,0.000000,0.000000,0.000000,0.000000,-7146.203992,12206.922475
node3128207063001OH3128207021001,0.000000,0.000000,0.000000,0.000000,-7145.771880,12205.189184
nodeOH3128206021002OH3128206021001,0.000000,0.000000,0.000000,0.000000,-7145.400498,12203.850121
nodeOH3128206001002OH3128206021002,0.000000,0.000000,0.000000,0.000000,-7144.964720,12202.243064
node3128205094001OH3128206001002,0.000000,0.000000,0.000000,0.000000,-7144.821770,12201.754248
nodeOH3128206002001OH3128206001001,0.000000,0.000000,0.000000,0.000000,-7144.821770,12201.754248
nodeSW3128206006001-AOH3128206002001,0.000000,0.000000,0.000000,0.000000,-7144.821770,12201.754248
nodeSW3128206006001-BSW3128206006001-A,0.000000,0.000000,0.000000,0.000000,-7144.821770,12201.754248
nodeUD3128206006001SW3128206006001-B,0.000000,0.000000,0.000000,0.000000,-7144.821770,12201.754248
node3128206020002UD3128206006001,0.000000,0.000000,0.000000,0.000000,-7144.821770,12201.754248
node3128205063001OH3128205041001,0.000000,0.000000,0.000000,0.000000,-7144.381709,12200.125357
nodeOH3128204021002OH3128204081001,0.000000,0.000000,0.000000,0.000000,-7143.885068,12198.516118
nodeOH3128203910002OH3128204021002,0.000000,0.000000,0.000000,0.000000,-7143.360495,12196.997399
nodeOH3128204004002OH3128203910002,0.000000,0.000000,0.000000,0.000000,-7143.192868,12196.512094
nodeOH3128203094001OH3128204004002,0.000000,0.000000,0.000000,0.000000,-7142.867474,12195.570032
nodeOH3128203044002OH3128203094001,0.000000,0.000000,0.000000,0.000000,-7142.865468,12195.554421
node3128203032001OH3128203044002,0.000000,0.000000,0.000000,0.000000,-7142.853690,12195.462757
nodeOH3128204058001OH3128204008001,0.000000,0.000000,0.000000,0.000000,-7142.545320,12194.600858
node3128204059001OH3128204058001,0.000000,0.000000,0.000000,0.000000,-7142.476544,12194.491253
nodeOH3128203058001OH3128204008002,0.000000,0.000000,0.000000,0.000000,-7142.534744,12194.582823
node3128203060001OH3128203058001,0.000000,0.000000,0.000000,0.000000,-7142.363338,12194.290505
nodeOH3128202058001OH3128203028001,0.000000,0.000000,0.000000,0.000000,-7142.243951,12194.116011
nodeOH3129111162001OH3128202058001,0.000000,0.000000,0.000000,0.000000,-7142.183641,12194.003229
nodeOH3129111135001OH3129111162001,0.000000,0.000000,0.000000,0.000000,-7142.135558,12193.913312
node3129111125001OH3129111135001,0.000000,0.000000,0.000000,0.000000,-7142.094730,12193.836961
nodeOH3129113122001OH3129113101001,0.000000,0.000000,0.000000,0.000000,-7142.469411,12194.102028
nodeOH3129113182002OH3129113122001,0.000000,0.000000,0.000000,0.000000,-7142.465860,12194.085242
node3129113193001OH3129113182002,0.000000,0.000000,0.000000,0.000000,-7142.451986,12194.019666
nodeOH3129112195001OH3129113106001,0.000000,0.000000,0.000000,0.000000,-7142.394640,12193.592678
nodeOH3129112156001OH3129112195001,0.000000,0.000000,0.000000,0.000000,-7142.402214,12193.589573
node3129112144001OH3129112156001,0.000000,0.000000,0.000000,0.000000,-7142.482642,12193.556607
nodeOH3129112262002OH3129113202002,0.000000,0.000000,0.000000,0.000000,-7142.172487,12192.878982
nodeOH3129112254002OH3129112262002,0.000000,0.000000,0.000000,0.000000,-7142.105045,12192.731949
node3129112245001OH3129112254002,0.000000,0.000000,0.000000,0.000000,-7142.065622,12192.647055
nodeOH3129113215001OH3129113203002,0.000000,0.000000,0.000000,0.000000,-7142.149977,12192.766398
nodeOH3129113218002OH3129113215001,0.000000,0.000000,0.000000,0.000000,-7142.126407,12192.648516
nodeOH3129113216001OH3129113218002,0.000000,0.000000,0.000000,0.000000,-7142.102837,12192.530633
nodeOH3129113257001OH3129113216001,0.000000,0.000000,0.000000,0.000000,-7142.118302,12192.535324
node3129113276001OH3129113257001,0.000000,0.000000,0.000000,0.000000,-7142.148042,12192.544344
nodeOH3129113208002OH3129113218001,0.000000,0.000000,0.000000,0.000000,-7142.060605,12192.413312
nodeOH3129113303001OH3129113208002,0.000000,0.000000,0.000000,0.000000,-7142.053793,12192.386642
nodeOH3129113309001OH3129113303001,0.000000,0.000000,0.000000,0.000000,-7141.991507,12192.142795
nodeOH3129113329001OH3129113309001,0.000000,0.000000,0.000000,0.000000,-7141.917300,12191.852275
nodeOH3129113369002OH3129113329001,0.000000,0.000000,0.000000,0.000000,-7141.915912,12191.830554
node3129113370001OH3129113369002,0.000000,0.000000,0.000000,0.000000,-7141.911342,12191.759024
nodeOH3129113425001OH3129113405001,0.000000,0.000000,0.000000,0.000000,-7141.851050,12191.677711
nodeOH3129113455001OH3129113425001,0.000000,0.000000,0.000000,0.000000,-7141.837229,12191.641295
...